Circuit: * C:\Users\Nahuel\OneDrive - UTN.BA\2022\Teoría de Circuitos II\Practica\Trabajo Semanal\TS5\LTspice\Ej2_c.asc

Number of points per decade reduced from 40000 to 16210.

Date: Fri Jul 08 01:26:50 2022
Total elapsed time: 0.126 seconds.

tnom = 27
temp = 27
method = trap
totiter = 0
traniter = 0
tranpoints = 0
accept = 0
rejected = 0
matrix size = 6
fillins = 1
solver = Normal

