Circuit: * C:\Users\Nahuel\OneDrive - UTN.BA\2022\Teoría de Circuitos II\Practica\Trabajo Semanal\TS3\Spice\Ejercicio_4.asc

WARNING: Node VO is floating.

Ignoring empty pin current: Ix(u1:1)
Ignoring empty pin current: Ix(u1:2)
Ignoring empty pin current: Ix(u2:1)
Ignoring empty pin current: Ix(u2:2)
Ignoring empty pin current: Ix(u3:1)
Ignoring empty pin current: Ix(u3:2)
Ignoring empty pin current: Ix(u4:1)
Ignoring empty pin current: Ix(u4:2)

Date: Fri Jul 01 21:52:39 2022
Total elapsed time: 0.051 seconds.

tnom = 27
temp = 27
method = trap
totiter = 0
traniter = 0
tranpoints = 0
accept = 0
rejected = 0
matrix size = 15
fillins = 16
solver = Normal

