Circuit: * C:\Users\Nahuel\OneDrive - UTN.BA\2022\Teoría de Circuitos II\Practica\Actividad 1\Spice\Draft1.asc


Date: Sat Apr 30 00:17:00 2022
Total elapsed time: 0.027 seconds.

tnom = 27
temp = 27
method = trap
totiter = 0
traniter = 0
tranpoints = 0
accept = 0
rejected = 0
matrix size = 5
fillins = 0
solver = Normal

