Circuit: * C:\Users\Nahuel\OneDrive - UTN.BA\2022\Teoría de Circuitos II\Practica\Actividad 1\Spice\PasaTodo.asc

Ignoring empty pin current: Ix(u1:1)
Ignoring empty pin current: Ix(u1:2)

Date: Thu Apr 21 01:21:39 2022
Total elapsed time: 0.035 seconds.

tnom = 27
temp = 27
method = trap
totiter = 0
traniter = 0
tranpoints = 0
accept = 0
rejected = 0
matrix size = 5
fillins = 1
solver = Normal

