Circuit: * C:\Users\Nahuel\OneDrive - UTN.BA\2022\Teoría de Circuitos II\Practica\Trabajo Semanal\TS15\Circuitos\Draft2.asc

Number of points per decade reduced from 10000 to 7244.
WARNING: Node VO is floating.


Date: Fri Dec 02 22:18:31 2022
Total elapsed time: 0.121 seconds.

tnom = 27
temp = 27
method = trap
totiter = 0
traniter = 0
tranpoints = 0
accept = 0
rejected = 0
matrix size = 4
fillins = 1
solver = Normal

