Circuit: * C:\Users\Nahuel\OneDrive - UTN.BA\2022\Teoría de Circuitos II\Practica\Trabajo Semanal\TS13\Circuitos\Draft1.asc


Date: Tue Nov 22 15:27:37 2022
Total elapsed time: 0.074 seconds.

tnom = 27
temp = 27
method = trap
totiter = 0
traniter = 0
tranpoints = 0
accept = 0
rejected = 0
matrix size = 3
fillins = 0
solver = Normal

